SC_ref0
  PyMOL2.4          3D                             0

 33 34  0  0  1  0  0  0  0  0999 V2000
   81.5752   34.8060   70.4862 C   0  0  1  0  0  0  0  0  0  0  0  0
   80.6045   33.7742   71.0097 C   0  0  0  0  0  0  0  0  0  0  0  0
   79.9934   33.8882   72.2652 C   0  0  0  0  0  0  0  0  0  0  0  0
   79.1116   32.9089   72.7147 C   0  0  0  0  0  0  0  0  0  0  0  0
   78.8397   31.7814   71.9353 C   0  0  0  0  0  0  0  0  0  0  0  0
   79.4497   31.6426   70.6756 C   0  0  0  0  0  0  0  0  0  0  0  0
   80.3055   32.6553   70.2236 C   0  0  0  0  0  0  0  0  0  0  0  0
   77.8770   30.7338   72.4833 C   0  0  1  0  0  0  0  0  0  0  0  0
   79.2330   30.4752   69.9162 N   0  0  0  0  0  0  0  0  0  0  0  0
   79.7873   30.3132   68.5731 C   0  0  2  0  0  0  0  0  0  0  0  0
   79.6638   28.8800   68.0892 C   0  0  0  0  0  0  0  0  0  0  0  0
   80.8166   28.1728   67.7351 C   0  0  0  0  0  0  0  0  0  0  0  0
   80.7128   26.8610   67.2834 C   0  0  0  0  0  0  0  0  0  0  0  0
   79.4586   26.2643   67.1787 C   0  0  0  0  0  0  0  0  0  0  0  0
   78.3051   26.9687   67.5166 C   0  0  0  0  0  0  0  0  0  0  0  0
   78.4064   28.2808   67.9697 C   0  0  0  0  0  0  0  0  0  0  0  0
   80.1891   34.7357   72.9052 H   0  0  0  0  0  0  0  0  0  0  0  0
   78.6470   33.0241   73.6835 H   0  0  0  0  0  0  0  0  0  0  0  0
   80.7679   32.5736   69.2520 H   0  0  0  0  0  0  0  0  0  0  0  0
   77.1240   30.4774   71.7365 H   0  0  0  0  0  0  0  0  0  0  0  0
   78.4125   29.8197   72.7427 H   0  0  0  0  0  0  0  0  0  0  0  0
   77.3421   31.0904   73.3648 H   0  0  0  0  0  0  0  0  0  0  0  0
   78.4349   29.9050   70.1573 H   0  0  0  0  0  0  0  0  0  0  0  0
   80.8366   30.6088   68.5465 H   0  0  0  0  0  0  0  0  0  0  0  0
   79.2512   30.9635   67.8835 H   0  0  0  0  0  0  0  0  0  0  0  0
   81.7919   28.6316   67.8117 H   0  0  0  0  0  0  0  0  0  0  0  0
   81.6001   26.3075   67.0137 H   0  0  0  0  0  0  0  0  0  0  0  0
   79.3785   25.2462   66.8269 H   0  0  0  0  0  0  0  0  0  0  0  0
   77.3358   26.5000   67.4263 H   0  0  0  0  0  0  0  0  0  0  0  0
   77.5114   28.8284   68.2276 H   0  0  0  0  0  0  0  0  0  0  0  0
   81.9211   34.5106   69.4957 H   0  0  0  0  0  0  0  0  0  0  0  0
   81.0782   35.7741   70.4233 H   0  0  0  0  0  0  0  0  0  0  0  0
   82.4277   34.8791   71.1614 H   0  0  0  0  0  0  0  0  0  0  0  0
  1  2  1  0  0  0  0
  1 31  1  6  0  0  0
  1 32  1  0  0  0  0
  1 33  1  0  0  0  0
  2  3  2  0  0  0  0
  2  7  1  0  0  0  0
  3  4  1  0  0  0  0
  3 17  1  0  0  0  0
  4  5  2  0  0  0  0
  4 18  1  0  0  0  0
  5  6  1  0  0  0  0
  5  8  1  0  0  0  0
  6  7  2  0  0  0  0
  6  9  1  0  0  0  0
  7 19  1  0  0  0  0
  8 20  1  6  0  0  0
  8 21  1  0  0  0  0
  8 22  1  0  0  0  0
  9 10  1  0  0  0  0
  9 23  1  0  0  0  0
 10 11  1  0  0  0  0
 10 24  1  1  0  0  0
 10 25  1  0  0  0  0
 11 12  2  0  0  0  0
 11 16  1  0  0  0  0
 12 13  1  0  0  0  0
 12 26  1  0  0  0  0
 13 14  2  0  0  0  0
 13 27  1  0  0  0  0
 14 15  1  0  0  0  0
 14 28  1  0  0  0  0
 15 16  2  0  0  0  0
 15 29  1  0  0  0  0
 16 30  1  0  0  0  0
M  END
>  <b_m_subgroup_collapsed>
0

>  <s_m_subgroup_title>
scaffold_refs

>  <s_m_subgroupid>
scaffold_refs

>  <PHA_LIPINSKI_HB_ACCEPTORS>
0

>  <PHA_LIPINSKI_HB_DONORS>
1

>  <PHA_MOLECULAR_WEIGHT>
211

>  <PHA_WILDMAN-CRIPPEN_LOGP>
3.915540

>  <PHA_LIPINSKI_RO5_COMPLIANCE>
4/4

>  <PHA_SMILES>
Cc1ccc(C)c(NCc2ccccc2)c1

>  <PHA_INCHI>
InChI=1S/C15H17N/c1-12-8-9-13(2)15(10-12)16-11-14-6-4-3-5-7-14/h3-10,16H,11H2,1-2H3

>  <PHA_TPSA>
12.030000

>  <PHA_PSA>
13.576450

>  <PHA_INCHI_REFERENCE>
InChI=1S/C15H17N/c1-12-8-9-13(2)15(10-12)16-11-14-6-4-3-5-7-14/h3-10,16H,11H2,1-2H3

>  <PHA_SMILES_REFERENCE>
Cc1ccc(C)c(NCc2ccccc2)c1

>  <PHA_HELE_SCORE>
1.000000

>  <PHA_HCAV_SCORE>
1.000000

>  <PHA_HBOND_SCORE>
1.000000

>  <PHA_SIMILARITY_SCORE>
1.000000

>  <PHA_REFERENCE_MOLECULE_NUMBER>
1

$$$$
SC_ref1
  PyMOL2.4          3D                             0

 32 34  0  0  1  0  0  0  0  0999 V2000
   75.8915   31.0279   73.9429 Cl  0  0  0  0  0  0  0  0  0  0  0  0
   79.9006   27.3845   66.7203 C   0  0  0  0  0  0  0  0  0  0  0  0
   81.0340   27.4532   67.5270 C   0  0  0  0  0  0  0  0  0  0  0  0
   81.0776   28.3601   68.5828 C   0  0  0  0  0  0  0  0  0  0  0  0
   79.9851   29.1871   68.8446 C   0  0  0  0  0  0  0  0  0  0  0  0
   78.8468   29.1079   68.0308 C   0  0  0  0  0  0  0  0  0  0  0  0
   78.8065   28.2100   66.9673 C   0  0  0  0  0  0  0  0  0  0  0  0
   80.0963   30.1011   69.8732 O   0  0  0  0  0  0  0  0  0  0  0  0
   79.0921   30.3105   70.8038 C   0  0  0  0  0  0  0  0  0  0  0  0
   79.0641   31.5173   71.5324 C   0  0  0  0  0  0  0  0  0  0  0  0
   78.0708   31.7275   72.5015 C   0  0  0  0  0  0  0  0  0  0  0  0
   77.1165   30.7467   72.7601 C   0  0  0  0  0  0  0  0  0  0  0  0
   77.1543   29.5424   72.0639 C   0  0  0  0  0  0  0  0  0  0  0  0
   78.1372   29.3228   71.1019 C   0  0  0  0  0  0  0  0  0  0  0  0
   80.0218   32.5355   71.3112 N   0  0  0  0  0  0  0  0  0  0  0  0
   80.5438   33.2385   72.3263 N   0  0  0  0  0  0  0  0  0  0  0  0
   81.4127   34.1649   71.7816 N   0  0  0  0  0  0  0  0  0  0  0  0
   81.4057   34.0391   70.4633 C   0  0  0  0  0  0  0  0  0  0  0  0
   80.5446   32.9949   70.1281 C   0  0  0  0  0  0  0  0  0  0  0  0
   82.1698   34.8224   69.5237 C   0  0  1  0  0  0  0  0  0  0  0  0
   79.8645   26.5098   65.6901 F   0  0  0  0  0  0  0  0  0  0  0  0
   81.8819   26.8148   67.3267 H   0  0  0  0  0  0  0  0  0  0  0  0
   81.9635   28.4266   69.1980 H   0  0  0  0  0  0  0  0  0  0  0  0
   77.9966   29.7453   68.2195 H   0  0  0  0  0  0  0  0  0  0  0  0
   77.9312   28.1538   66.3367 H   0  0  0  0  0  0  0  0  0  0  0  0
   78.0319   32.6544   73.0563 H   0  0  0  0  0  0  0  0  0  0  0  0
   76.4262   28.7718   72.2731 H   0  0  0  0  0  0  0  0  0  0  0  0
   78.1547   28.3703   70.5946 H   0  0  0  0  0  0  0  0  0  0  0  0
   80.2490   32.5689   69.1818 H   0  0  0  0  0  0  0  0  0  0  0  0
   81.9538   34.4865   68.5095 H   0  0  0  0  0  0  0  0  0  0  0  0
   81.9007   35.8740   69.6228 H   0  0  0  0  0  0  0  0  0  0  0  0
   83.2335   34.6993   69.7277 H   0  0  0  0  0  0  0  0  0  0  0  0
  1 12  1  0  0  0  0
  2  3  2  0  0  0  0
  2  7  1  0  0  0  0
  2 21  1  0  0  0  0
  3  4  1  0  0  0  0
  3 22  1  0  0  0  0
  4  5  2  0  0  0  0
  4 23  1  0  0  0  0
  5  6  1  0  0  0  0
  5  8  1  0  0  0  0
  6  7  2  0  0  0  0
  6 24  1  0  0  0  0
  7 25  1  0  0  0  0
  8  9  1  0  0  0  0
  9 10  1  0  0  0  0
  9 14  2  0  0  0  0
 10 11  2  0  0  0  0
 10 15  1  0  0  0  0
 11 12  1  0  0  0  0
 11 26  1  0  0  0  0
 12 13  2  0  0  0  0
 13 14  1  0  0  0  0
 13 27  1  0  0  0  0
 14 28  1  0  0  0  0
 15 16  1  0  0  0  0
 15 19  1  0  0  0  0
 16 17  2  0  0  0  0
 17 18  1  0  0  0  0
 18 19  2  0  0  0  0
 18 20  1  0  0  0  0
 19 29  1  0  0  0  0
 20 30  1  6  0  0  0
 20 31  1  0  0  0  0
 20 32  1  0  0  0  0
M  END
>  <b_m_subgroup_collapsed>
0

>  <s_m_subgroup_title>
scaffold_refs

>  <s_m_subgroupid>
scaffold_refs

>  <PHA_LIPINSKI_HB_ACCEPTORS>
3

>  <PHA_LIPINSKI_HB_DONORS>
0

>  <PHA_MOLECULAR_WEIGHT>
303

>  <PHA_WILDMAN-CRIPPEN_LOGP>
4.160520

>  <PHA_LIPINSKI_RO5_COMPLIANCE>
4/4

>  <PHA_SMILES>
Cc1cn(-c2cc(Cl)ccc2Oc2ccc(F)cc2)nn1

>  <PHA_INCHI>
InChI=1S/C15H11ClFN3O/c1-10-9-20(19-18-10)14-8-11(16)2-7-15(14)21-13-5-3-12(17)4-6-13/h2-9H,1H3

>  <PHA_TPSA>
39.940000

>  <PHA_PSA>
42.495420

>  <PHA_INCHI_REFERENCE>
InChI=1S/C15H17N/c1-12-8-9-13(2)15(10-12)16-11-14-6-4-3-5-7-14/h3-10,16H,11H2,1-2H3

>  <PHA_SMILES_REFERENCE>
Cc1ccc(C)c(NCc2ccccc2)c1

>  <PHA_HELE_SCORE>
0.385102

>  <PHA_HCAV_SCORE>
0.634334

>  <PHA_HBOND_SCORE>
0.000000

>  <PHA_SIMILARITY_SCORE>
0.508592

>  <PHA_REFERENCE_MOLECULE_NUMBER>
1

$$$$
