SC_ref0
  PyMOL2.4          3D                             0

 33 34  0  0  1  0  0  0  0  0999 V2000
   81.5752   34.8060   70.4862 C   0  0  1  0  0  0  0  0  0  0  0  0
   80.6045   33.7742   71.0097 C   0  0  0  0  0  0  0  0  0  0  0  0
   79.9934   33.8882   72.2652 C   0  0  0  0  0  0  0  0  0  0  0  0
   79.1116   32.9089   72.7147 C   0  0  0  0  0  0  0  0  0  0  0  0
   78.8397   31.7814   71.9353 C   0  0  0  0  0  0  0  0  0  0  0  0
   79.4497   31.6426   70.6756 C   0  0  0  0  0  0  0  0  0  0  0  0
   80.3055   32.6553   70.2236 C   0  0  0  0  0  0  0  0  0  0  0  0
   77.8770   30.7338   72.4833 C   0  0  1  0  0  0  0  0  0  0  0  0
   79.2330   30.4752   69.9162 N   0  0  0  0  0  0  0  0  0  0  0  0
   79.7873   30.3132   68.5731 C   0  0  2  0  0  0  0  0  0  0  0  0
   79.6638   28.8800   68.0892 C   0  0  0  0  0  0  0  0  0  0  0  0
   80.8166   28.1728   67.7351 C   0  0  0  0  0  0  0  0  0  0  0  0
   80.7128   26.8610   67.2834 C   0  0  0  0  0  0  0  0  0  0  0  0
   79.4586   26.2643   67.1787 C   0  0  0  0  0  0  0  0  0  0  0  0
   78.3051   26.9687   67.5166 C   0  0  0  0  0  0  0  0  0  0  0  0
   78.4064   28.2808   67.9697 C   0  0  0  0  0  0  0  0  0  0  0  0
   80.1891   34.7357   72.9052 H   0  0  0  0  0  0  0  0  0  0  0  0
   78.6470   33.0241   73.6835 H   0  0  0  0  0  0  0  0  0  0  0  0
   80.7679   32.5736   69.2520 H   0  0  0  0  0  0  0  0  0  0  0  0
   77.1240   30.4774   71.7365 H   0  0  0  0  0  0  0  0  0  0  0  0
   78.4125   29.8197   72.7427 H   0  0  0  0  0  0  0  0  0  0  0  0
   77.3421   31.0904   73.3648 H   0  0  0  0  0  0  0  0  0  0  0  0
   78.4349   29.9050   70.1573 H   0  0  0  0  0  0  0  0  0  0  0  0
   80.8366   30.6088   68.5465 H   0  0  0  0  0  0  0  0  0  0  0  0
   79.2512   30.9635   67.8835 H   0  0  0  0  0  0  0  0  0  0  0  0
   81.7919   28.6316   67.8117 H   0  0  0  0  0  0  0  0  0  0  0  0
   81.6001   26.3075   67.0137 H   0  0  0  0  0  0  0  0  0  0  0  0
   79.3785   25.2462   66.8269 H   0  0  0  0  0  0  0  0  0  0  0  0
   77.3358   26.5000   67.4263 H   0  0  0  0  0  0  0  0  0  0  0  0
   77.5114   28.8284   68.2276 H   0  0  0  0  0  0  0  0  0  0  0  0
   81.9211   34.5106   69.4957 H   0  0  0  0  0  0  0  0  0  0  0  0
   81.0782   35.7741   70.4233 H   0  0  0  0  0  0  0  0  0  0  0  0
   82.4277   34.8791   71.1614 H   0  0  0  0  0  0  0  0  0  0  0  0
  1  2  1  0  0  0  0
  1 31  1  6  0  0  0
  1 32  1  0  0  0  0
  1 33  1  0  0  0  0
  2  3  2  0  0  0  0
  2  7  1  0  0  0  0
  3  4  1  0  0  0  0
  3 17  1  0  0  0  0
  4  5  2  0  0  0  0
  4 18  1  0  0  0  0
  5  6  1  0  0  0  0
  5  8  1  0  0  0  0
  6  7  2  0  0  0  0
  6  9  1  0  0  0  0
  7 19  1  0  0  0  0
  8 20  1  6  0  0  0
  8 21  1  0  0  0  0
  8 22  1  0  0  0  0
  9 10  1  0  0  0  0
  9 23  1  0  0  0  0
 10 11  1  0  0  0  0
 10 24  1  1  0  0  0
 10 25  1  0  0  0  0
 11 12  2  0  0  0  0
 11 16  1  0  0  0  0
 12 13  1  0  0  0  0
 12 26  1  0  0  0  0
 13 14  2  0  0  0  0
 13 27  1  0  0  0  0
 14 15  1  0  0  0  0
 14 28  1  0  0  0  0
 15 16  2  0  0  0  0
 15 29  1  0  0  0  0
 16 30  1  0  0  0  0
M  END
>  <b_m_subgroup_collapsed>
0

>  <s_m_subgroup_title>
scaffold_refs

>  <s_m_subgroupid>
scaffold_refs

>  <PHA_LIPINSKI_HB_ACCEPTORS>
0

>  <PHA_LIPINSKI_HB_DONORS>
1

>  <PHA_MOLECULAR_WEIGHT>
211

>  <PHA_WILDMAN-CRIPPEN_LOGP>
3.915540

>  <PHA_LIPINSKI_RO5_COMPLIANCE>
4/4

>  <PHA_SMILES>
Cc1ccc(C)c(NCc2ccccc2)c1

>  <PHA_INCHI>
InChI=1S/C15H17N/c1-12-8-9-13(2)15(10-12)16-11-14-6-4-3-5-7-14/h3-10,16H,11H2,1-2H3

>  <PHA_TPSA>
12.030000

>  <PHA_PSA>
13.576450

$$$$
SC_ref1
  PyMOL2.4          3D                             0

 32 34  0  0  1  0  0  0  0  0999 V2000
   74.5833   30.9648   72.5990 Cl  0  0  0  0  0  0  0  0  0  0  0  0
   80.1399   28.4631   65.9373 C   0  0  0  0  0  0  0  0  0  0  0  0
   81.0308   28.2570   66.9879 C   0  0  0  0  0  0  0  0  0  0  0  0
   80.8434   28.9255   68.1950 C   0  0  0  0  0  0  0  0  0  0  0  0
   79.7587   29.7870   68.3603 C   0  0  0  0  0  0  0  0  0  0  0  0
   78.8644   29.9848   67.2995 C   0  0  0  0  0  0  0  0  0  0  0  0
   79.0574   29.3262   66.0879 C   0  0  0  0  0  0  0  0  0  0  0  0
   79.6439   30.4612   69.5595 O   0  0  0  0  0  0  0  0  0  0  0  0
   78.4453   30.5781   70.2437 C   0  0  0  0  0  0  0  0  0  0  0  0
   78.2861   31.6115   71.1896 C   0  0  0  0  0  0  0  0  0  0  0  0
   77.0882   31.7204   71.9130 C   0  0  0  0  0  0  0  0  0  0  0  0
   76.0564   30.8066   71.7137 C   0  0  0  0  0  0  0  0  0  0  0  0
   76.2169   29.7682   70.8014 C   0  0  0  0  0  0  0  0  0  0  0  0
   77.4024   29.6497   70.0801 C   0  0  0  0  0  0  0  0  0  0  0  0
   79.3133   32.5539   71.4333 N   0  0  0  0  0  0  0  0  0  0  0  0
   79.5891   32.9846   72.6724 N   0  0  0  0  0  0  0  0  0  0  0  0
   80.6094   33.9111   72.5687 N   0  0  0  0  0  0  0  0  0  0  0  0
   80.9346   34.0529   71.2928 C   0  0  0  0  0  0  0  0  0  0  0  0
   80.1419   33.1869   70.5405 C   0  0  0  0  0  0  0  0  0  0  0  0
   81.9483   34.9291   70.7592 C   0  0  1  0  0  0  0  0  0  0  0  0
   80.3294   27.8201   64.7632 F   0  0  0  0  0  0  0  0  0  0  0  0
   81.8721   27.5912   66.8631 H   0  0  0  0  0  0  0  0  0  0  0  0
   81.5443   28.7799   69.0045 H   0  0  0  0  0  0  0  0  0  0  0  0
   78.0238   30.6521   67.4126 H   0  0  0  0  0  0  0  0  0  0  0  0
   78.3711   29.4839   65.2686 H   0  0  0  0  0  0  0  0  0  0  0  0
   76.9504   32.5167   72.6308 H   0  0  0  0  0  0  0  0  0  0  0  0
   75.4255   29.0469   70.6557 H   0  0  0  0  0  0  0  0  0  0  0  0
   77.5063   28.8210   69.3965 H   0  0  0  0  0  0  0  0  0  0  0  0
   80.0796   32.9901   69.4814 H   0  0  0  0  0  0  0  0  0  0  0  0
   81.9843   34.8259   69.6747 H   0  0  0  0  0  0  0  0  0  0  0  0
   81.7104   35.9609   71.0178 H   0  0  0  0  0  0  0  0  0  0  0  0
   82.9176   34.6635   71.1812 H   0  0  0  0  0  0  0  0  0  0  0  0
  1 12  1  0  0  0  0
  2  3  2  0  0  0  0
  2  7  1  0  0  0  0
  2 21  1  0  0  0  0
  3  4  1  0  0  0  0
  3 22  1  0  0  0  0
  4  5  2  0  0  0  0
  4 23  1  0  0  0  0
  5  6  1  0  0  0  0
  5  8  1  0  0  0  0
  6  7  2  0  0  0  0
  6 24  1  0  0  0  0
  7 25  1  0  0  0  0
  8  9  1  0  0  0  0
  9 10  1  0  0  0  0
  9 14  2  0  0  0  0
 10 11  2  0  0  0  0
 10 15  1  0  0  0  0
 11 12  1  0  0  0  0
 11 26  1  0  0  0  0
 12 13  2  0  0  0  0
 13 14  1  0  0  0  0
 13 27  1  0  0  0  0
 14 28  1  0  0  0  0
 15 16  1  0  0  0  0
 15 19  1  0  0  0  0
 16 17  2  0  0  0  0
 17 18  1  0  0  0  0
 18 19  2  0  0  0  0
 18 20  1  0  0  0  0
 19 29  1  0  0  0  0
 20 30  1  6  0  0  0
 20 31  1  0  0  0  0
 20 32  1  0  0  0  0
M  END
>  <b_m_subgroup_collapsed>
0

>  <s_m_subgroup_title>
scaffold_refs

>  <s_m_subgroupid>
scaffold_refs

>  <PHA_LIPINSKI_HB_ACCEPTORS>
3

>  <PHA_LIPINSKI_HB_DONORS>
0

>  <PHA_MOLECULAR_WEIGHT>
303

>  <PHA_WILDMAN-CRIPPEN_LOGP>
4.160520

>  <PHA_LIPINSKI_RO5_COMPLIANCE>
4/4

>  <PHA_SMILES>
Cc1cn(-c2cc(Cl)ccc2Oc2ccc(F)cc2)nn1

>  <PHA_INCHI>
InChI=1S/C15H11ClFN3O/c1-10-9-20(19-18-10)14-8-11(16)2-7-15(14)21-13-5-3-12(17)4-6-13/h2-9H,1H3

>  <PHA_TPSA>
39.940000

>  <PHA_PSA>
42.495420

$$$$
