SC_ref0
  PyMOL2.4          3D                             0

 21 22  0  0  0  0  0  0  0  0999 V2000
   44.2016   -3.6338   24.7666 C   0  0  0  0  0  0  0  0  0  0  0  0
   43.9367   -3.0057   26.0399 C   0  0  0  0  0  0  0  0  0  0  0  0
   44.8145   -2.9787   23.7680 N   0  0  0  0  0  0  0  0  0  0  0  0
   43.8226   -4.9040   24.5680 N   0  3  0  0  0  0  0  0  0  0  0  0
   44.0146   -1.2725   26.2158 S   0  0  0  0  0  0  0  0  0  0  0  0
   43.4734   -1.3841   27.8881 C   0  0  0  0  0  0  0  0  0  0  0  0
   43.2820   -2.7481   28.2713 C   0  0  0  0  0  0  0  0  0  0  0  0
   43.6146   -3.6588   27.2041 C   0  0  0  0  0  0  0  0  0  0  0  0
   43.2146   -0.3314   28.7832 C   0  0  0  0  0  0  0  0  0  0  0  0
   42.7171   -0.6043   30.0691 C   0  0  0  0  0  0  0  0  0  0  0  0
   42.5152   -1.9356   30.4684 C   0  0  0  0  0  0  0  0  0  0  0  0
   42.8146   -2.9915   29.5860 C   0  0  0  0  0  0  0  0  0  0  0  0
   42.5417   -4.9638   30.2300 I   0  0  0  0  0  0  0  0  0  0  0  0
   45.1012   -3.4591   22.8979 H   0  0  0  0  0  0  0  0  0  0  0  0
   45.1786   -2.0480   23.9407 H   0  0  0  0  0  0  0  0  0  0  0  0
   44.1133   -5.3787   23.6996 H   0  0  0  0  0  0  0  0  0  0  0  0
   43.3505   -5.4254   25.2976 H   0  0  0  0  0  0  0  0  0  0  0  0
   43.5605   -4.7275   27.3242 H   0  0  0  0  0  0  0  0  0  0  0  0
   43.3573    0.6922   28.4686 H   0  0  0  0  0  0  0  0  0  0  0  0
   42.4766    0.2071   30.7422 H   0  0  0  0  0  0  0  0  0  0  0  0
   42.1376   -2.1499   31.4575 H   0  0  0  0  0  0  0  0  0  0  0  0
  1  2  1  0  0  0  0
  1  3  1  0  0  0  0
  1  4  2  0  0  0  0
  2  5  1  0  0  0  0
  2  8  2  0  0  0  0
  3 14  1  0  0  0  0
  3 15  1  0  0  0  0
  4 16  1  0  0  0  0
  4 17  1  0  0  0  0
  5  6  1  0  0  0  0
  6  7  2  0  0  0  0
  6  9  1  0  0  0  0
  7  8  1  0  0  0  0
  7 12  1  0  0  0  0
  8 18  1  0  0  0  0
  9 10  2  0  0  0  0
  9 19  1  0  0  0  0
 10 11  1  0  0  0  0
 10 20  1  0  0  0  0
 11 12  2  0  0  0  0
 11 21  1  0  0  0  0
 12 13  1  0  0  0  0
M  END
>  <b_m_subgroup_collapsed>
0

>  <r_i_docking_score>
-8.144370

>  <r_i_glide_emodel>
-68.300000

>  <r_i_glide_gscore>
-8.144370

>  <s_m_subgroup_title>


>  <16_pv>


>  <s_m_subgroupid>


>  <PHA_LIPINSKI_HB_ACCEPTORS>
1

>  <PHA_LIPINSKI_HB_DONORS>
2

>  <PHA_MOLECULAR_WEIGHT>
302

>  <PHA_WILDMAN-CRIPPEN_LOGP>
0.970300

>  <PHA_LIPINSKI_RO5_COMPLIANCE>
4/4

>  <PHA_SMILES>
NC(=[NH2+])c1cc2c(I)cccc2s1

>  <PHA_INCHI>
InChI=1S/C9H7IN2S/c10-6-2-1-3-7-5(6)4-8(13-7)9(11)12/h1-4H,(H3,11,12)/p+1

>  <PHA_TPSA>
51.610000

>  <PHA_PSA>
68.831440

>  <PHA_INCHI_REFERENCE>
InChI=1S/C9H7IN2S/c10-6-2-1-3-7-5(6)4-8(13-7)9(11)12/h1-4H,(H3,11,12)/p+1

>  <PHA_SMILES_REFERENCE>
NC(=[NH2+])c1cc2c(I)cccc2s1

>  <PHA_HELE_SCORE>
1.000000

>  <PHA_HCAV_SCORE>
1.000000

>  <PHA_HBOND_SCORE>
1.000000

>  <PHA_SIMILARITY_SCORE>
1.000000

>  <PHA_REFERENCE_MOLECULE_NUMBER>
1

>  <PHA_NUM_CLUSTER>
0

$$$$
SC_ref1
  PyMOL2.4          3D                             0

 24 25  0  0  0  0  0  0  0  0999 V2000
   43.8042   -2.8886   26.0340 C   0  0  0  0  0  0  0  0  0  0  0  0
   44.7256   -2.9787   23.7680 N   0  0  0  0  0  0  0  0  0  0  0  0
   44.4147   -1.6410   26.3314 C   0  0  0  0  0  0  0  0  0  0  0  0
   43.7717   -4.8881   24.5680 N   0  3  0  0  0  0  0  0  0  0  0  0
   44.1260   -0.9547   27.5318 C   0  0  0  0  0  0  0  0  0  0  0  0
   42.8097   -1.0170   29.6992 N   0  0  0  0  0  0  0  0  0  0  0  0
   43.2258   -1.4955   28.4690 C   0  0  0  0  0  0  0  0  0  0  0  0
   41.7880   -2.9825   29.2431 N   0  0  0  0  0  0  0  0  0  0  0  0
   42.6142   -2.7415   28.1588 C   0  0  0  0  0  0  0  0  0  0  0  0
   42.8966   -3.4344   26.9684 C   0  0  0  0  0  0  0  0  0  0  0  0
   44.1033   -3.6020   24.7737 C   0  0  0  0  0  0  0  0  0  0  0  0
   41.9467   -1.9507   30.0946 C   0  0  0  0  0  0  0  0  0  0  0  0
   45.0282   -3.4780   22.9163 H   0  0  0  0  0  0  0  0  0  0  0  0
   45.0764   -2.0392   23.9068 H   0  0  0  0  0  0  0  0  0  0  0  0
   45.1302   -1.1945   25.6588 H   0  0  0  0  0  0  0  0  0  0  0  0
   44.0905   -5.3604   23.7085 H   0  0  0  0  0  0  0  0  0  0  0  0
   43.3556   -5.4384   25.3095 H   0  0  0  0  0  0  0  0  0  0  0  0
   44.6061   -0.0158   27.7634 H   0  0  0  0  0  0  0  0  0  0  0  0
   41.1740   -3.7699   29.3940 H   0  0  0  0  0  0  0  0  0  0  0  0
   42.4145   -4.3754   26.7833 H   0  0  0  0  0  0  0  0  0  0  0  0
   41.1926   -1.8808   31.3786 C   0  0  0  0  0  0  0  0  0  0  0  0
   41.4500   -0.9691   31.9180 H   0  0  0  0  0  0  0  0  0  0  0  0
   40.1208   -1.8740   31.1839 H   0  0  0  0  0  0  0  0  0  0  0  0
   41.4351   -2.7368   32.0076 H   0  0  0  0  0  0  0  0  0  0  0  0
  1  3  2  0  0  0  0
  1 10  1  0  0  0  0
  1 11  1  0  0  0  0
  2 11  1  0  0  0  0
  2 13  1  0  0  0  0
  2 14  1  0  0  0  0
  3  5  1  0  0  0  0
  3 15  1  0  0  0  0
  4 11  2  0  0  0  0
  4 16  1  0  0  0  0
  4 17  1  0  0  0  0
  5  7  2  0  0  0  0
  5 18  1  0  0  0  0
  6 12  2  0  0  0  0
  6  7  1  0  0  0  0
  7  9  1  0  0  0  0
  8  9  1  0  0  0  0
  8 12  1  0  0  0  0
  8 19  1  0  0  0  0
  9 10  2  0  0  0  0
 10 20  1  0  0  0  0
 12 21  1  0  0  0  0
 21 22  1  0  0  0  0
 21 23  1  0  0  0  0
 21 24  1  0  0  0  0
M  END
>  <b_m_subgroup_collapsed>
0

>  <r_i_docking_score>
-8.519060

>  <r_i_glide_emodel>
-64.764700

>  <r_i_glide_gscore>
-8.519060

>  <s_m_subgroup_title>


>  <16_pv>


>  <s_m_subgroupid>


>  <PHA_LIPINSKI_HB_ACCEPTORS>
2

>  <PHA_LIPINSKI_HB_DONORS>
3

>  <PHA_MOLECULAR_WEIGHT>
175

>  <PHA_WILDMAN-CRIPPEN_LOGP>
-0.664280

>  <PHA_LIPINSKI_RO5_COMPLIANCE>
4/4

>  <PHA_SMILES>
Cc1nc2ccc(C(N)=[NH2+])cc2[nH]1

>  <PHA_INCHI>
InChI=1S/C9H10N4/c1-5-12-7-3-2-6(9(10)11)4-8(7)13-5/h2-4H,1H3,(H3,10,11)(H,12,13)/p+1

>  <PHA_TPSA>
80.290000

>  <PHA_PSA>
72.038660

>  <PHA_INCHI_REFERENCE>
InChI=1S/C9H10N4/c1-5-12-7-3-2-6(9(10)11)4-8(7)13-5/h2-4H,1H3,(H3,10,11)(H,12,13)/p+1

>  <PHA_SMILES_REFERENCE>
Cc1nc2ccc(C(N)=[NH2+])cc2[nH]1

>  <PHA_HELE_SCORE>
1.000000

>  <PHA_HCAV_SCORE>
1.000000

>  <PHA_HBOND_SCORE>
1.000000

>  <PHA_SIMILARITY_SCORE>
1.000000

>  <PHA_REFERENCE_MOLECULE_NUMBER>
2

>  <PHA_NUM_CLUSTER>
0

$$$$
